DSDR_Study/results/database/3_BusVoltage_DG_out.csv
Bus,Phase,Voltage (kV),Voltage (pu),Angle (deg)
650,A,2.3973,0.9981,-33.34
650,B,2.4426,1.0170,-152.65
650,C,2.3967,0.9979,86.35
RG60,A,2.5471,1.0605,-33.34
RG60,B,2.5648,1.0679,-152.65
RG60,C,2.5615,1.0665,86.35
632,A,2.4466,1.0187,-35.92
632,B,2.5497,1.0616,-154.32
632,C,2.4358,1.0142,84.22
633,A,2.4396,1.0158,-35.93
633,B,2.5429,1.0588,-154.38
633,C,2.4315,1.0124,84.18
634,A,0.2749,0.9918,-36.60
634,B,0.2884,1.0406,-154.82
634,C,0.2754,0.9936,83.69
645,B,2.5314,1.0540,-154.44
645,C,2.4273,1.0106,84.30
646,B,2.5272,1.0522,-154.52
646,C,2.4223,1.0085,84.34
671,A,2.3722,0.9877,-38.70
671,B,2.5752,1.0722,-154.95
671,C,2.3423,0.9753,82.38
692,A,2.3722,0.9877,-38.70
692,B,2.5752,1.0722,-154.95
692,C,2.3423,0.9753,82.38
675,A,2.3558,0.9809,-39.06
675,B,2.5859,1.0767,-155.12
675,C,2.3367,0.9729,82.49
680,A,2.3722,0.9877,-38.70
680,B,2.5752,1.0722,-154.95
680,C,2.3423,0.9753,82.38
684,A,2.3679,0.9859,-38.72
684,C,2.3373,0.9732,82.27
652,A,2.3564,0.9811,-38.64
611,C,2.3327,0.9712,82.13
DL,A,2.4084,1.0028,-37.29
DL,B,2.5617,1.0666,-154.65
DL,C,2.3872,0.9939,83.28
DG,A,0.4025,1.0103,174.64
DG,B,0.4133,1.0376,52.23
DG,C,0.3931,0.9868,-67.95
